
New "LoadShape.Shape_1" npts=48 interval=0.5 mult=(file=C:\Users\ylb10119\Desktop\loadshapes\loadshape1.csv) UseActual=Yes
New "LoadShape.Shape_2" npts=48 interval=0.5 mult=(file=C:\Users\ylb10119\Desktop\loadshapes\loadshape2.csv) UseActual=Yes
New "LoadShape.Shape_3" npts=48 interval=0.5 mult=(file=C:\Users\ylb10119\Desktop\loadshapes\loadshape3.csv) UseActual=Yes
New "LoadShape.Shape_4" npts=48 interval=0.5 mult=(file=C:\Users\ylb10119\Desktop\loadshapes\loadshape4.csv) UseActual=Yes
New "LoadShape.Shape_5" npts=48 interval=0.5 mult=(file=C:\Users\ylb10119\Desktop\loadshapes\loadshape5.csv) UseActual=Yes
New "LoadShape.Shape_6" npts=48 interval=0.5 mult=(file=C:\Users\ylb10119\Desktop\loadshapes\loadshape6.csv) UseActual=Yes
New "LoadShape.Shape_7" npts=48 interval=0.5 mult=(file=C:\Users\ylb10119\Desktop\loadshapes\loadshape7.csv) UseActual=Yes
New "LoadShape.Shape_8" npts=48 interval=0.5 mult=(file=C:\Users\ylb10119\Desktop\loadshapes\loadshape8.csv) UseActual=Yes
New "LoadShape.Shape_9" npts=48 interval=0.5 mult=(file=C:\Users\ylb10119\Desktop\loadshapes\loadshape9.csv) UseActual=Yes
New "LoadShape.Shape_10" npts=48 interval=0.5 mult=(file=C:\Users\ylb10119\Desktop\loadshapes\loadshape10.csv) UseActual=Yes
New "LoadShape.Shape_11" npts=48 interval=0.5 mult=(file=C:\Users\ylb10119\Desktop\loadshapes\loadshape11.csv) UseActual=Yes
New "LoadShape.Shape_12" npts=48 interval=0.5 mult=(file=C:\Users\ylb10119\Desktop\loadshapes\loadshape12.csv) UseActual=Yes
New "LoadShape.Shape_13" npts=48 interval=0.5 mult=(file=C:\Users\ylb10119\Desktop\loadshapes\loadshape13.csv) UseActual=Yes
New "LoadShape.Shape_14" npts=48 interval=0.5 mult=(file=C:\Users\ylb10119\Desktop\loadshapes\loadshape14.csv) UseActual=Yes
New "LoadShape.Shape_15" npts=48 interval=0.5 mult=(file=C:\Users\ylb10119\Desktop\loadshapes\loadshape15.csv) UseActual=Yes
New "LoadShape.Shape_16" npts=48 interval=0.5 mult=(file=C:\Users\ylb10119\Desktop\loadshapes\loadshape16.csv) UseActual=Yes
New "LoadShape.Shape_17" npts=48 interval=0.5 mult=(file=C:\Users\ylb10119\Desktop\loadshapes\loadshape17.csv) UseActual=Yes
New "LoadShape.Shape_18" npts=48 interval=0.5 mult=(file=C:\Users\ylb10119\Desktop\loadshapes\loadshape18.csv) UseActual=Yes
New "LoadShape.Shape_19" npts=48 interval=0.5 mult=(file=C:\Users\ylb10119\Desktop\loadshapes\loadshape19.csv) UseActual=Yes
New "LoadShape.Shape_20" npts=48 interval=0.5 mult=(file=C:\Users\ylb10119\Desktop\loadshapes\loadshape20.csv) UseActual=Yes
New "LoadShape.Shape_21" npts=48 interval=0.5 mult=(file=C:\Users\ylb10119\Desktop\loadshapes\loadshape21.csv) UseActual=Yes
New "LoadShape.Shape_22" npts=48 interval=0.5 mult=(file=C:\Users\ylb10119\Desktop\loadshapes\loadshape22.csv) UseActual=Yes
New "LoadShape.Shape_23" npts=48 interval=0.5 mult=(file=C:\Users\ylb10119\Desktop\loadshapes\loadshape23.csv) UseActual=Yes
New "LoadShape.Shape_24" npts=48 interval=0.5 mult=(file=C:\Users\ylb10119\Desktop\loadshapes\loadshape24.csv) UseActual=Yes
New "LoadShape.Shape_25" npts=48 interval=0.5 mult=(file=C:\Users\ylb10119\Desktop\loadshapes\loadshape25.csv) UseActual=Yes
New "LoadShape.Shape_26" npts=48 interval=0.5 mult=(file=C:\Users\ylb10119\Desktop\loadshapes\loadshape26.csv) UseActual=Yes
New "LoadShape.Shape_27" npts=48 interval=0.5 mult=(file=C:\Users\ylb10119\Desktop\loadshapes\loadshape27.csv) UseActual=Yes
New "LoadShape.Shape_28" npts=48 interval=0.5 mult=(file=C:\Users\ylb10119\Desktop\loadshapes\loadshape28.csv) UseActual=Yes
New "LoadShape.Shape_29" npts=48 interval=0.5 mult=(file=C:\Users\ylb10119\Desktop\loadshapes\loadshape29.csv) UseActual=Yes
New "LoadShape.Shape_30" npts=48 interval=0.5 mult=(file=C:\Users\ylb10119\Desktop\loadshapes\loadshape30.csv) UseActual=Yes
New "LoadShape.Shape_31" npts=48 interval=0.5 mult=(file=C:\Users\ylb10119\Desktop\loadshapes\loadshape31.csv) UseActual=Yes
New "LoadShape.Shape_32" npts=48 interval=0.5 mult=(file=C:\Users\ylb10119\Desktop\loadshapes\loadshape32.csv) UseActual=Yes
New "LoadShape.Shape_33" npts=48 interval=0.5 mult=(file=C:\Users\ylb10119\Desktop\loadshapes\loadshape33.csv) UseActual=Yes
New "LoadShape.Shape_34" npts=48 interval=0.5 mult=(file=C:\Users\ylb10119\Desktop\loadshapes\loadshape34.csv) UseActual=Yes
New "LoadShape.Shape_35" npts=48 interval=0.5 mult=(file=C:\Users\ylb10119\Desktop\loadshapes\loadshape35.csv) UseActual=Yes
New "LoadShape.Shape_36" npts=48 interval=0.5 mult=(file=C:\Users\ylb10119\Desktop\loadshapes\loadshape36.csv) UseActual=Yes
New "LoadShape.Shape_37" npts=48 interval=0.5 mult=(file=C:\Users\ylb10119\Desktop\loadshapes\loadshape37.csv) UseActual=Yes
New "LoadShape.Shape_38" npts=48 interval=0.5 mult=(file=C:\Users\ylb10119\Desktop\loadshapes\loadshape38.csv) UseActual=Yes
New "LoadShape.Shape_39" npts=48 interval=0.5 mult=(file=C:\Users\ylb10119\Desktop\loadshapes\loadshape39.csv) UseActual=Yes
New "LoadShape.Shape_40" npts=48 interval=0.5 mult=(file=C:\Users\ylb10119\Desktop\loadshapes\loadshape40.csv) UseActual=Yes
New "LoadShape.Shape_41" npts=48 interval=0.5 mult=(file=C:\Users\ylb10119\Desktop\loadshapes\loadshape41.csv) UseActual=Yes
New "LoadShape.Shape_42" npts=48 interval=0.5 mult=(file=C:\Users\ylb10119\Desktop\loadshapes\loadshape42.csv) UseActual=Yes
New "LoadShape.Shape_43" npts=48 interval=0.5 mult=(file=C:\Users\ylb10119\Desktop\loadshapes\loadshape43.csv) UseActual=Yes
New "LoadShape.Shape_44" npts=48 interval=0.5 mult=(file=C:\Users\ylb10119\Desktop\loadshapes\loadshape44.csv) UseActual=Yes
New "LoadShape.Shape_45" npts=48 interval=0.5 mult=(file=C:\Users\ylb10119\Desktop\loadshapes\loadshape45.csv) UseActual=Yes
New "LoadShape.Shape_46" npts=48 interval=0.5 mult=(file=C:\Users\ylb10119\Desktop\loadshapes\loadshape46.csv) UseActual=Yes
New "LoadShape.Shape_47" npts=48 interval=0.5 mult=(file=C:\Users\ylb10119\Desktop\loadshapes\loadshape47.csv) UseActual=Yes
New "LoadShape.Shape_48" npts=48 interval=0.5 mult=(file=C:\Users\ylb10119\Desktop\loadshapes\loadshape48.csv) UseActual=Yes
New "LoadShape.Shape_49" npts=48 interval=0.5 mult=(file=C:\Users\ylb10119\Desktop\loadshapes\loadshape49.csv) UseActual=Yes
New "LoadShape.Shape_50" npts=48 interval=0.5 mult=(file=C:\Users\ylb10119\Desktop\loadshapes\loadshape50.csv) UseActual=Yes
New "LoadShape.Shape_51" npts=48 interval=0.5 mult=(file=C:\Users\ylb10119\Desktop\loadshapes\loadshape51.csv) UseActual=Yes
New "LoadShape.Shape_52" npts=48 interval=0.5 mult=(file=C:\Users\ylb10119\Desktop\loadshapes\loadshape52.csv) UseActual=Yes
New "LoadShape.Shape_53" npts=48 interval=0.5 mult=(file=C:\Users\ylb10119\Desktop\loadshapes\loadshape53.csv) UseActual=Yes
New "LoadShape.Shape_54" npts=48 interval=0.5 mult=(file=C:\Users\ylb10119\Desktop\loadshapes\loadshape54.csv) UseActual=Yes
New "LoadShape.Shape_55" npts=48 interval=0.5 mult=(file=C:\Users\ylb10119\Desktop\loadshapes\loadshape55.csv) UseActual=Yes
